LAMMPS (2 Aug 2023 - Update 2)
Loaded 1 plugins from C:\Users\Ratish Panda\AppData\Local\LAMMPS 64-bit 2Aug2023-MSMPI with Python\plugins
# Tensile Test Simulation in LAMMPS

# Initialize
units metal
boundary p p p
atom_style atomic

# Specify the number of OpenMP threads
package omp 4
set 4 OpenMP thread(s) per MPI task
using multi-threaded neighbor list subroutines

# Read data file (output from previous steps)
read_data NiCoCrFe_pka_5keV_final.lmp
Reading data file ...
  orthogonal box = (0.80381162 0.80381162 0.80381162) to (161.64619 161.64619 161.64619)
  reading atoms ...
  364500 atoms
  reading velocities ...
  364500 velocities

# Define potential (EAM potential for Nickel)
pair_style eam/alloy
pair_coeff * * FeNiCrCoCu-heafixed.setfl Ni Co Cr Fe

neighbor	 1 bin
neigh_modify every 1 delay 0 check yes

# Define relaxation parameters
reset_timestep 0
timestep 0.01
fix 1 all npt temp 300 300 1 iso 0 0 1 drag 1
thermo 100
thermo_style custom step temp press etotal

# Relaxation for 20 ps
run 2000
No /omp style for force computation currently active
Step          Temp          Press          TotEng
0   364.22939     -26334.117     -1554633.7
Averages over the last 11 of 21 rows, steps 1000 to 2000:
Temp Press TotEng
309.902 -47.773 -1.56061e+06
Loop time of 843.007 on 16 procs for 2000 steps with 364500 atoms
