LAMMPS (2 Aug 2023 - Update 2)
Loaded 1 plugins from C:\Users\Ratish Panda\AppData\Local\LAMMPS 64-bit 2Aug2023\plugins
# LAMMPS input script for relaxation of FCC Nickel crystal with 3D PBC and NPT ensemble
# Includes periodic dumping of atomic configurations

# Initialize
units metal
boundary p p p
atom_style atomic

# Read data file
read_data Ni_crystal.lmp
Reading data file ...
  orthogonal box = (0 0 0) to (158.4 158.4 158.4)
  reading atoms ...
  364500 atoms

# Define potential (EAM potential for Nickel)
pair_style eam
pair_coeff * * Ni_u3.eam
Reading eam potential file Ni_u3.eam with DATE: 2007-06-11

# Define relaxation parameters
reset_timestep 0
timestep 0.01
thermo 100
thermo_style custom step temp press etotal

# Dump settings for atomic configurations
dump 1 all custom 1000 Ni_relaxed_*.dump id type x y z vx vy vz fx fy fz
dump_modify 1 sort id

# Relaxation run in NPT ensemble for 100 ps
fix 1 all npt temp 300 300 0.1 iso 0.0 0.0 1000.0 drag 1.0
run 10000
Step          Temp          Press          TotEng
0   0             -0.12038609    -1622025
Averages over the last 51 of 101 rows, steps 5000 to 10000:
Temp Press TotEng
114.37 1321.47 -1.61664e+06
Loop time of 3550.37 on 4 procs for 10000 steps with 364500 atoms

# Write relaxed structure
write_data Ni_relaxed.lmp
System init for write_data ...
